# generated using pymatgen
data_TbAg2
_symmetry_space_group_name_H-M   'P 1'
_cell_length_a   3.72233573
_cell_length_b   3.72233579
_cell_length_c   5.30597561
_cell_angle_alpha   110.53429551
_cell_angle_beta   110.53429344
_cell_angle_gamma   90.00001253
_symmetry_Int_Tables_number   1
_chemical_formula_structural   TbAg2
_chemical_formula_sum   'Tb1 Ag2'
_cell_volume   63.83516901
_cell_formula_units_Z   1
loop_
 _symmetry_equiv_pos_site_id
 _symmetry_equiv_pos_as_xyz
  1  'x, y, z'
loop_
 _atom_site_type_symbol
 _atom_site_label
 _atom_site_symmetry_multiplicity
 _atom_site_fract_x
 _atom_site_fract_y
 _atom_site_fract_z
 _atom_site_occupancy
  Tb  Tb0  1  0.00000000  0.00000000  0.00000000  1
  Ag  Ag1  1  0.32909504  0.32909504  0.65819207  1
  Ag  Ag2  1  0.67090496  0.67090496  0.34180793  1
