# generated using pymatgen
data_RbHoO2
_symmetry_space_group_name_H-M   'P 1'
_cell_length_a   6.80457458
_cell_length_b   6.80457458
_cell_length_c   6.80457521
_cell_angle_alpha   29.42045480
_cell_angle_beta   29.42045480
_cell_angle_gamma   29.42044847
_symmetry_Int_Tables_number   1
_chemical_formula_structural   RbHoO2
_chemical_formula_sum   'Rb1 Ho1 O2'
_cell_volume   67.28260733
_cell_formula_units_Z   1
loop_
 _symmetry_equiv_pos_site_id
 _symmetry_equiv_pos_as_xyz
  1  'x, y, z'
loop_
 _atom_site_type_symbol
 _atom_site_label
 _atom_site_symmetry_multiplicity
 _atom_site_fract_x
 _atom_site_fract_y
 _atom_site_fract_z
 _atom_site_occupancy
  Rb  Rb0  1  -0.00000000  -0.00000000  0.00000000  1
  Ho  Ho1  1  0.50000000  0.50000000  0.50000000  1
  O  O2  1  0.77504062  0.77504062  0.77504062  1
  O  O3  1  0.22495938  0.22495938  0.22495938  1
