# generated using pymatgen
data_DyUN2
_symmetry_space_group_name_H-M   'P 1'
_cell_length_a   6.08459162
_cell_length_b   6.08459162
_cell_length_c   6.08459240
_cell_angle_alpha   32.79162535
_cell_angle_beta   32.79162535
_cell_angle_gamma   32.79163414
_symmetry_Int_Tables_number   1
_chemical_formula_structural   DyUN2
_chemical_formula_sum   'Dy1 U1 N2'
_cell_volume   58.78006179
_cell_formula_units_Z   1
loop_
 _symmetry_equiv_pos_site_id
 _symmetry_equiv_pos_as_xyz
  1  'x, y, z'
loop_
 _atom_site_type_symbol
 _atom_site_label
 _atom_site_symmetry_multiplicity
 _atom_site_fract_x
 _atom_site_fract_y
 _atom_site_fract_z
 _atom_site_occupancy
  Dy  Dy0  1  0.50000000  0.50000000  0.50000000  1
  U  U1  1  -0.00000000  -0.00000000  -0.00000000  1
  N  N2  1  0.25106251  0.25106251  0.25106251  1
  N  N3  1  0.74893749  0.74893749  0.74893749  1
