# generated using pymatgen
data_NaHoS2
_symmetry_space_group_name_H-M   'P 1'
_cell_length_a   3.94559338
_cell_length_b   3.94559338
_cell_length_c   6.99336227
_cell_angle_alpha   73.61468084
_cell_angle_beta   73.61468084
_cell_angle_gamma   59.99998321
_symmetry_Int_Tables_number   1
_chemical_formula_structural   NaHoS2
_chemical_formula_sum   'Na1 Ho1 S2'
_cell_volume   89.14248856
_cell_formula_units_Z   1
loop_
 _symmetry_equiv_pos_site_id
 _symmetry_equiv_pos_as_xyz
  1  'x, y, z'
loop_
 _atom_site_type_symbol
 _atom_site_label
 _atom_site_symmetry_multiplicity
 _atom_site_fract_x
 _atom_site_fract_y
 _atom_site_fract_z
 _atom_site_occupancy
  Na  Na0  1  0.50000000  0.50000000  0.50000000  1
  Ho  Ho1  1  0.00000000  0.00000000  -0.00000000  1
  S  S2  1  0.25753060  0.25753060  0.22740721  1
  S  S3  1  0.74246940  0.74246940  0.77259279  1
