# generated using pymatgen
data_Ac2Mg
_symmetry_space_group_name_H-M   'P 1'
_cell_length_a   7.45917106
_cell_length_b   7.45917106
_cell_length_c   8.27031451
_cell_angle_alpha   73.90419782
_cell_angle_beta   73.90419782
_cell_angle_gamma   32.11746648
_symmetry_Int_Tables_number   1
_chemical_formula_structural   Ac2Mg
_chemical_formula_sum   'Ac4 Mg2'
_cell_volume   234.24154321
_cell_formula_units_Z   2
loop_
 _symmetry_equiv_pos_site_id
 _symmetry_equiv_pos_as_xyz
  1  'x, y, z'
loop_
 _atom_site_type_symbol
 _atom_site_label
 _atom_site_symmetry_multiplicity
 _atom_site_fract_x
 _atom_site_fract_y
 _atom_site_fract_z
 _atom_site_occupancy
  Ac  Ac0  1  0.85190528  0.85190528  0.57123442  1
  Ac  Ac1  1  0.14809472  0.14809472  0.42876558  1
  Ac  Ac2  1  0.84774264  0.84774264  0.07894438  1
  Ac  Ac3  1  0.15225736  0.15225736  0.92105562  1
  Mg  Mg4  1  0.49683677  0.49683677  0.75683384  1
  Mg  Mg5  1  0.50316323  0.50316323  0.24316616  1
