# generated using pymatgen
data_Ag2S
_symmetry_space_group_name_H-M   'P 1'
_cell_length_a   5.81173422
_cell_length_b   4.00070013
_cell_length_c   5.81431703
_cell_angle_alpha   90.18881805
_cell_angle_beta   90.00000000
_cell_angle_gamma   90.00000000
_symmetry_Int_Tables_number   1
_chemical_formula_structural   Ag2S
_chemical_formula_sum   'Ag4 S2'
_cell_volume   135.18798519
_cell_formula_units_Z   2
loop_
 _symmetry_equiv_pos_site_id
 _symmetry_equiv_pos_as_xyz
  1  'x, y, z'
loop_
 _atom_site_type_symbol
 _atom_site_label
 _atom_site_symmetry_multiplicity
 _atom_site_fract_x
 _atom_site_fract_y
 _atom_site_fract_z
 _atom_site_occupancy
  Ag  Ag0  1  0.49647280  0.99319594  -0.00103076  1
  Ag  Ag1  1  0.99647280  0.00680406  0.00103076  1
  Ag  Ag2  1  0.50210514  0.99874319  0.49892075  1
  Ag  Ag3  1  0.00210514  0.00125681  0.50107925  1
  S  S4  1  0.75142206  0.67348999  0.74957348  1
  S  S5  1  0.25142206  0.32651001  0.25042652  1
